reduced_networks/ieee34/59pct/dss/Shunts.dss
! Kron-equivalent grounded shunts
new Reactor.sh_2 phases=3 bus1=800.1.2.3 bus2=800.0.0.0 rmatrix=[0.8555674422773978 | 0.1344572069784143 0.8472356165108531 | 0.1363206359033444 0.1322223084888245 0.8508306969008073] xmatrix=[-63028.46864596412 | -20816.98383919096 -64457.44848960553 | -15466.49486796724 -12426.09761626329 -63850.01689811875]
new Reactor.sh_3 phases=3 bus1=808.1.2.3 bus2=808.0.0.0 rmatrix=[0.02795476960031816 | 0.006838906600446002 0.0329929240726291 | 0.00483430075506657 0.005507409074849393 0.02706548557947567] xmatrix=[-30678.91430345549 | -8951.238518110806 -27716.39169294226 | -7378.179029919198 -5343.212854924474 -31359.28368803504]
new Reactor.sh_4 phases=3 bus1=812.1.2.3 bus2=812.0.0.0 rmatrix=[2.824214451022655e-08 | -2.738354304337383e-09 -2.818113573127996e-08 | 1.793947788370641e-08 1.750998078638702e-08 3.983851827801595e-08] xmatrix=[-34256.90080614501 | -11314.38499504352 -35033.56990844153 | -8406.328231866113 -6753.835225740335 -34703.42275865295]
new Reactor.sh_5 phases=3 bus1=814.1.2.3 bus2=814.0.0.0 rmatrix=[3.866830563920138 | 0.0006304758752250686 -6.987140295300516 | 0.7866573810725223 -0.8878446525274771 0.04718898111605085] xmatrix=[9.665510472407801 | 0.0006620565195586114 -17.47285451928631 | 1.966208741170841 -2.220433495628735 -72668.69135551038]
new Reactor.sh_6 phases=3 bus1=814r.1.2.3 bus2=814r.0.0.0 rmatrix=[-4.549142533317091 | 7.926192775745242e-06 7.395091229854387 | -0.9070496752281378 0.9332851160541911 -6.675415360368788] xmatrix=[-11.37287876210872 | 8.322502788070275e-06 18.48767004082926 | -2.267630508883245 2.333219276709032 -6998512.992797435]
new Reactor.sh_7 phases=3 bus1=816.1.2.3 bus2=816.0.0.0 rmatrix=[0.5666313509311133 | 0.1824182993650041 0.05874579552518089 | 0.1360028323509295 0.04385992846485076 0.03245903927021399] xmatrix=[-41036.02496893678 | -13210.78747099651 -211870.0183027165 | -9849.389317108114 -29372.82740282043 -218351.1037864185]
new Reactor.sh_8 phases=3 bus1=824.1.2.3 bus2=824.0.0.0 rmatrix=[0.1291242310422526 | 0.01090761920597978 0.1010742528373568 | 0.01537204010321419 0.01158192516447839 0.128378289578523] xmatrix=[-74444.26338702347 | -20513.03644561546 -65075.23401605852 | -17432.18870021495 -12302.78901493084 -76146.92230669907]
new Reactor.sh_9 phases=1 bus1=820.1 bus2=820.0 rmatrix=[0.242419686438007] xmatrix=[-32316.99409874062]
new Reactor.sh_10 phases=3 bus1=830.1.2.3 bus2=830.0.0.0 rmatrix=[0.1369208439907284 | 0.2043463387731546 0.706286499876116 | 0.04583960099983255 0.12695540894518 0.0982628498632977] xmatrix=[-38848.49826533575 | -7415.915285156933 -23526.15071933562 | -8681.878015781973 -4447.725715906997 -40489.91028108861]
new Reactor.sh_11 phases=3 bus1=832.1.2.3 bus2=832.0.0.0 rmatrix=[4.998759968666686 | 0.621602617096528 4.963501126448056 | 0.6247400369616325 0.6024435962128653 4.988194825040328] xmatrix=[-807.6240755692878 | -2.322175236419076 -806.3873602655354 | -1.149946914164081 -0.3066797650042796 -809.5670867064608]
new Reactor.sh_12 phases=3 bus1=852r.1.2.3 bus2=852r.0.0.0 rmatrix=[-1209.400419642725 | -1.245614703259653 -4.440514667421955 | -1.650611866796234 -1.623260312341741e-07 -8.989794628431227] xmatrix=[-206225696.8537388 | -3.113983955122996 -11.10128727808481 | -4.126459923122931 -1.704417371444227e-07 -22.47448909156367]
new Reactor.sh_13 phases=3 bus1=888.1.2.3 bus2=888.0.0.0 rmatrix=[7.325669333966002e-06 | -5.040781206077913e-07 -9.82273788571212e-06 | 3.553412433123191e-06 3.582489443638137e-07 9.550487204898714e-06] xmatrix=[-218095.7804246676 | -72032.77492640969 -223040.4266196278 | -53518.69763797957 -42998.13846310216 -220938.5522795104]
new Reactor.sh_14 phases=3 bus1=852.1.2.3 bus2=852.0.0.0 rmatrix=[0.5626607690944992 | 1.072125381901798 3.822369486761949 | 1.412151645645487 -0.0004464168871784149 7.691816664271266] xmatrix=[-55213.23443173313 | 2.679951141110267 9.554209804859015 | 3.529295975241613 -0.0004685636780295856 19.22265403012281]
new Reactor.sh_15 phases=3 bus1=890.1.2.3 bus2=890.0.0.0 rmatrix=[-2.167197329567855e-11 | -1.957092041461112e-11 -3.20323667296514e-11 | -2.337985998957555e-11 -3.455704008545044e-11 6.266485517260922e-12] xmatrix=[-218095.7804221805 | -72032.77492272455 -223040.426609716 | -53518.6976363976 -42998.13846060462 -220938.5522763621]
